.\" Generated by Mmark Markdown Processer - mmark.miek.nl
.TH "CFGROUP" 1 "September 2024" "User Commands" "CFEngine"

.SH "CFGROUP"
.SH "NAME"
.PP
cfgroup - list or query CFEngine configuration

.SH "SYNOPSIS"
.PP
cfgroup  \fI[OPTION]\fP... [\fI[FILE]\fP]

.SH "DESCRIPTION"
.PP
Cfgroup will list or query CFengine configuration questions.

.PP
Options are:

.TP
\fB\fC-a\fR
print the AST to standard error
.TP
\fB\fC-p\fR
print the pretty printed document to standard output (defaults to true)
.TP
\fB\fC-l\fR
show lexer tokens
.TP
\fB\fC-d\fR
when parsing fails print the debug tree
.TP
\fB\fC-v\fR
show version and then exit


.PP
A few examples on how things are formatted:

.PP
.RS

.nf
"/etc/apparmor.d"
             delete => tidy,
     depth\_search => recurse("0"),
             file\_select => by\_name("session");

.fi
.RE

.PP
Becomes:

.PP
.RS

.nf
"/etc/apparmor.d"
  delete       => tidy,
  depth\_search => recurse("0"),
  file\_select  => by\_name("lightdm\-guest\-session");

.fi
.RE

.PP
If the first line of the file contains the comment: \fB\fC# cffmt:no\fR  it will not be pretty printed.
Another directive is \fB\fC# cffmt:list\fR which says the \fInext\fP list will have each item printed on a
new line. For example:

.PP
.RS

.nf
"Clients"         or => { aaa, bbb, ccc, dddd, eee, fff,
  ggg, hhhh };

.fi
.RE

.PP
Normally to:

.PP
.RS

.nf
"Clients"         or => { aaa, bbb, ccc, dddd, eee, fff, ggg, hhhh };

.fi
.RE

.PP
But with \fB\fC# cffmt:list\fR:

.PP
.RS

.nf
# cffmt:list
"Clients"         or => { aaa,
                          bbb,
                          ccc,
                          dddd,
                          eee,
                          fff,
                          ggg,
                          hhhh };

.fi
.RE

.SH "SEE ALSO"
.PP
See the project's README for more details. Development takes place on GitHub
\[la]https://github.com/miekg/cf\[ra].

.SH "AUTHOR"
.PP
Miek Gieben miek@miek.nl
\[la]mailto:miek@miek.nl\[ra].

